Clear 

New circuit.1 bus1=Sistema basekV=69 phases=3 mvasc=729 mvasc1=723

AddBusMarker Bus=Sistema Code=36 color=Red size=2
AddBusMarker Bus=1 Code=36 color=Red size=2
AddBusMarker Bus=101 Code=36 color=Red size=2
AddBusMarker Bus=201 Code=36 color=Red size=2
AddBusMarker Bus=401 Code=36 color=Red size=2
AddBusMarker Bus=501 Code=36 color=Red size=2
AddBusMarker Bus=701 Code=36 color=Red size=2

AddBusMarker Bus=1400 Code=36 color=Green size=2
AddBusMarker Bus=2000 Code=36 color=Green size=2
AddBusMarker Bus=2800 Code=36 color=Green size=2
AddBusMarker Bus=3400 Code=36 color=Green size=2
AddBusMarker Bus=4000 Code=36 color=Green size=2

AddBusMarker Bus=1030 Code=36 color=Green size=2
AddBusMarker Bus=12900 Code=36 color=Green size=2
AddBusMarker Bus=12500 Code=36 color=Green size=2
AddBusMarker Bus=14000 Code=36 color=Green size=2
AddBusMarker Bus=17300 Code=36 color=Green size=2
AddBusMarker Bus=16300 Code=36 color=Green size=2

AddBusMarker Bus=2030 Code=36 color=Green size=2
AddBusMarker Bus=20900 Code=36 color=Green size=2
AddBusMarker Bus=22400 Code=36 color=Green size=2
AddBusMarker Bus=22900 Code=36 color=Green size=2
AddBusMarker Bus=23400 Code=36 color=Green size=2
AddBusMarker Bus=25600 Code=36 color=Green size=2
AddBusMarker Bus=26100 Code=36 color=Green size=2
AddBusMarker Bus=27200 Code=36 color=Green size=2
AddBusMarker Bus=27900 Code=36 color=Green size=2
AddBusMarker Bus=32000 Code=36 color=Green size=2
AddBusMarker Bus=34100 Code=36 color=Green size=2

AddBusMarker Bus=4020 Code=36 color=Green size=2
AddBusMarker Bus=43200 Code=36 color=Green size=2
AddBusMarker Bus=47200 Code=36 color=Green size=2
AddBusMarker Bus=44000 Code=36 color=Green size=2

AddBusMarker Bus=5020 Code=36 color=Green size=2
AddBusMarker Bus=50400 Code=36 color=Green size=2
AddBusMarker Bus=51400 Code=36 color=Green size=2
AddBusMarker Bus=53200 Code=36 color=Green size=2
AddBusMarker Bus=54000 Code=36 color=Green size=2
AddBusMarker Bus=55900 Code=36 color=Green size=2
AddBusMarker Bus=56600 Code=36 color=Green size=2
AddBusMarker Bus=57500 Code=36 color=Green size=2
AddBusMarker Bus=58100 Code=36 color=Green size=2
AddBusMarker Bus=60700 Code=36 color=Green size=2


//Linha trifásica equilibrada 95 mm² 
new linecode.arranjo1 nphases=3 basefreq=60 units=km 
~ r1=0.2352 x1=0.1090 r0=2.0352 x0=2.5325 !ohm/km 

//Linha trifásica equilibrada 50 mm² 
new linecode.arranjo2 nphases=3 basefreq=60 units=km 
~ r1=0.4450 x1=0.1127 r0=2.2450 x0=2.5991 !ohm/km 

//Linha trifásica equilibrada 25 mm² 
new linecode.arranjo3 nphases=3 basefreq=60 units=km 
~ r1=0.8891 x1=0.1164 r0=2.6891 x0=2.6692 !ohm/km 

//Linha trifásica equilibrada 16 mm² BT 
new linecode.arranjo4 nphases=3 basefreq=60 units=km 
~ r1=1.3899 x1=0.1173 r0=3.189 x0=2.7173 !ohm/km 

//Linha trifásica equilibrada 16 mm² MT 
new linecode.arranjo5 nphases=3 basefreq=60 units=km 
~ r1=1.554 x1=0.373 r0=0.18 x0=0.40 !ohm/km 

//Linha trifásica equilibrada 120 mm² MT 
new linecode.arranjo6 nphases=3 basefreq=60 units=km 
~ r1=0.1993 x1=0.1554 r0=2.0184 x0=1.5179 !ohm/km 

//Linha trifásica equilibrada 500 mm² MT 
new linecode.arranjo7 nphases=3 basefreq=60 units=km 
~ r1=0.0531 x1=0.1297 r0=1.7271 x0=1.1109 !ohm/km 


//Planta solar 
//new XYcurve.Efic npts=4 xarray=[0.1 0.2 0.4 1] yarray=[0.86 0.9 0.93 0.97] 
//New Loadshape.Irradiação npts=24 interval=1 
//~ mult=( 0 0 0 0 0 0 0.1 0.2 0.3 0.4 0.5 0.8 1 1 1 0.9 0.7 0.1 0 0 0 0 0 0) 
//new Tshape.temppainel npts=24 interval=1 
//~ temp= [25 25 25 25 25 25 25 30 40 50 60 60 70 70 65 50 50 40 25 25 25 25 25 25] 
//new PVSystem.PV phases=3 bus1=330 kv=0.38 kVA=70 irrad=1 temperature=25 pf=1 
//~ %cutin=0.1 %cutout=0.1 Effcurve=Efic Daily=Irradiação TDaily=temppainel 


new line.linha1 phases=3 bus1=Sistema bus2=1 linecode=arranjo7 length=2 units=m 

//Trafo 30 delta estrela aterrada saindo o neutro PARA 1
new transformer.TrafoSET xhl=0.25 windings=2 %loadloss=0.7 %noloadloss=0.28 %imag=2 
~ wdg=1 bus=1 kv=69 kva=15000 conn=delta 
~ wdg=2 bus=2S kv=13.8 kva=15000 conn=wye 


new line.linha700 phases=3 bus1=2S bus2=701 linecode=arranjo7 length=2 units=m 

new line.linha100 phases=3 bus1=2S bus2=101 linecode=arranjo7 length=2 units=m 

new line.linha200 phases=3 bus1=2S bus2=201 linecode=arranjo7 length=2 units=m 

new line.linha400 phases=3 bus1=2S bus2=401 linecode=arranjo7 length=2 units=m

new line.linha500 phases=3 bus1=2S bus2=501 linecode=arranjo7 length=2 units=m



//Trafo 30 delta estrela aterrada saindo o neutro PARA 1
new transformer.Trafo1 xhl=0.5 windings=2 %loadloss=1.1267 %noloadloss=0.28 %imag=0.5 
~ wdg=1 bus=701 kv=13.8 kva=2500 conn=delta 
~ wdg=2 bus=702 kv=13.8 kva=2500 conn=wye 

//Trafo 30 delta estrela aterrada saindo o neutro PARA 101 
new transformer.Trafo101 xhl=3.5 windings=2 %loadloss=1.1267 %noloadloss=0.28 %imag=0.5 
~ wdg=1 bus=101 kv=13.8 kva=2500 conn=delta 
~ wdg=2 bus=102 kv=13.8 kva=2500 conn=wye 

//Trafo 30 delta estrela aterrada saindo o neutro PARA 201
new transformer.Trafo201 xhl=3.5 windings=2 %loadloss=1.1267 %noloadloss=0.28 %imag=0.5 
~ wdg=1 bus=201 kv=13.8 kva=2500 conn=delta 
~ wdg=2 bus=202 kv=13.8 kva=2500 conn=wye 

//Trafo 30 delta estrela aterrada saindo o neutro PARA 401
new transformer.Trafo401 xhl=3.5 windings=2 %loadloss=1.1267 %noloadloss=0.28 %imag=0.5 
~ wdg=1 bus=401 kv=13.8 kva=2500 conn=delta 
~ wdg=2 bus=402 kv=13.8 kva=2500 conn=wye 

//Trafo 30 delta estrela aterrada saindo o neutro PARA 501
new transformer.Trafo501 xhl=3.5 windings=2 %loadloss=1.1267 %noloadloss=0.28 %imag=0.5 
~ wdg=1 bus=501 kv=13.8 kva=2500 conn=delta 
~ wdg=2 bus=502 kv=13.8 kva=2500 conn=wye 


//-----------------------------------------------------------------------------------------------------------------------------------------------------

 
new line.linha2101 phases=3 bus1=702 bus2=2000 linecode=arranjo6 length=31 units=m 

 
//new line.linha2103 phases=3 bus1=702 bus2=6610 linecode=arranjo1 length=31 units=m 
//new line.linha2104 phases=3 bus1=702 bus2=7910 linecode=arranjo1 length=31 units=m 


//Trafo 30 delta estrela aterrada saindo o neutro PARA 
new transformer.Trafo230 xhl=0.25 windings=2 %loadloss=0.7 %noloadloss=0.28 %imag=2 
~ wdg=1 bus=2000 kv=13.8 kva=300 conn=delta 
~ wdg=2 bus=2001 kv=0.38 kva=300 conn=wye 

new line.linha2800 phases=3 bus1=702 bus2=2800 linecode=arranjo6 length=31 units=m 

//Trafo 30 delta estrela aterrada saindo o neutro PARA 
new transformer.Trafo280 xhl=3.5 windings=2 %loadloss=1.1267 %noloadloss=0.28 %imag=0.5 
~ wdg=1 bus=2800 kv=13.8 kva=300 conn=delta 
~ wdg=2 bus=2801 kv=0.38 kva=300 conn=wye 


new line.linha3400 phases=3 bus1=702 bus2=3400 linecode=arranjo6 length=31 units=m 

//Trafo 30 delta estrela aterrada saindo o neutro PARA 
new transformer.Trafo340 xhl=3.5 windings=2 %loadloss=1.1267 %noloadloss=0.28 %imag=0.5 
~ wdg=1 bus=3400 kv=13.8 kva=300 conn=delta 
~ wdg=2 bus=3401 kv=0.38 kva=300 conn=wye 


new line.linha1400 phases=3 bus1=702 bus2=1400 linecode=arranjo6 length=31 units=m 

//Trafo 30 delta estrela aterrada saindo o neutro PARA 
new transformer.Trafo140 xhl=3.5 windings=2 %loadloss=1.1267 %noloadloss=0.28 %imag=0.5 
~ wdg=1 bus=1400 kv=13.8 kva=300 conn=delta 
~ wdg=2 bus=1401 kv=0.38 kva=300 conn=wye 


new line.linha4000 phases=3 bus1=702 bus2=4000 linecode=arranjo6 length=31 units=m 

//Trafo 30 delta estrela aterrada saindo o neutro PARA 
new transformer.Trafo4000 xhl=3.5 windings=2 %loadloss=1.1267 %noloadloss=0.28 %imag=0.5 
~ wdg=1 bus=4000 kv=13.8 kva=300 conn=delta 
~ wdg=2 bus=4001 kv=0.38 kva=300 conn=wye 





new line.linha2102 phases=3 bus1=2001 bus2=2 linecode=arranjo1 length=31 units=m

new line.linha2803 phases=3 bus1=2801 bus2=28 linecode=arranjo1 length=31 units=m

new line.linha3403 phases=3 bus1=3401 bus2=34 linecode=arranjo1 length=31 units=m

new line.linha1403 phases=3 bus1=1401 bus2=14 linecode=arranjo1 length=31 units=m

new line.linha4003 phases=3 bus1=4001 bus2=4 linecode=arranjo1 length=31 units=m



new line.linha2 phases=3 bus1=2 bus2=3 linecode=arranjo4 length=38 units=m 

//new line.linha3 phases=3 bus1=3 bus2=4 linecode=arranjo4 length=38 units=m 

new line.linha4 phases=3 bus1=4 bus2=5 linecode=arranjo4 length=1 units=m

new line.linha5 phases=3 bus1=5 bus2=6 linecode=arranjo1 length=31 units=m 

new line.linha6 phases=3 bus1=6 bus2=7 linecode=arranjo4 length=38 units=m 

new line.linha7 phases=3 bus1=7 bus2=8 linecode=arranjo4 length=1 units=m

new line.linha8 phases=3 bus1=8 bus2=9 linecode=arranjo1 length=31 units=m 

new line.linha9 phases=3 bus1=9 bus2=10 linecode=arranjo4 length=38 units=m 

new line.linha10 phases=3 bus1=10 bus2=11 linecode=arranjo4 length=1 units=m

new line.linha11 phases=3 bus1=11 bus2=12 linecode=arranjo1 length=31 units=m 

new line.linha12 phases=3 bus1=3 bus2=13 linecode=arranjo4 length=38 units=m 

//new line.linha13 phases=3 bus1=4 bus2=14 linecode=arranjo4 length=38 units=m 

new line.linha14 phases=3 bus1=5 bus2=15 linecode=arranjo1 length=31 units=m 

new line.linha15 phases=3 bus1=6 bus2=16 linecode=arranjo4 length=38 units=m 

new line.linha16 phases=3 bus1=8 bus2=17 linecode=arranjo4 length=1 units=m

new line.linha17 phases=3 bus1=9 bus2=18 linecode=arranjo1 length=31 units=m 

new line.linha18 phases=3 bus1=10 bus2=19 linecode=arranjo4 length=38 units=m 

new line.linha19 phases=3 bus1=19 bus2=20 linecode=arranjo4 length=1 units=m

new line.linha20 phases=3 bus1=19 bus2=21 linecode=arranjo1 length=31 units=m 

new line.linha21 phases=3 bus1=2  bus2=22 linecode=arranjo4 length=38 units=m 

new line.linha22 phases=3 bus1=22 bus2=23 linecode=arranjo4 length=38 units=m 

new line.linha23 phases=3 bus1=23 bus2=24 linecode=arranjo1 length=31 units=m 

new line.linha24 phases=3 bus1=24 bus2=25 linecode=arranjo4 length=38 units=m 

new line.linha25 phases=3 bus1=25 bus2=26 linecode=arranjo4 length=1 units=m

new line.linha26 phases=3 bus1=26 bus2=27 linecode=arranjo1 length=31 units=m 

//new line.linha27 phases=3 bus1=27 bus2=28 linecode=arranjo4 length=38 units=m 

new line.linha28 phases=3 bus1=28 bus2=29 linecode=arranjo4 length=1 units=m

new line.linha29 phases=3 bus1=2  bus2=30 linecode=arranjo1 length=31 units=m 

new line.linha30 phases=3 bus1=30 bus2=31 linecode=arranjo4 length=38 units=m 

new line.linha31 phases=3 bus1=31 bus2=32 linecode=arranjo4 length=1 units=m

new line.linha32 phases=3 bus1=32 bus2=33 linecode=arranjo1 length=31 units=m 

//new line.linha33 phases=3 bus1=33 bus2=34 linecode=arranjo4 length=38 units=m 

new line.linha34 phases=3 bus1=34 bus2=35 linecode=arranjo4 length=38 units=m 

new line.linha35 phases=3 bus1=35 bus2=36 linecode=arranjo1 length=31 units=m 

new line.linha36 phases=3 bus1=36 bus2=37 linecode=arranjo4 length=38 units=m 

new line.linha37 phases=3 bus1=37 bus2=38 linecode=arranjo4 length=1 units=m

new line.linha38 phases=3 bus1=38 bus2=39 linecode=arranjo1 length=31 units=m 

new line.linha39 phases=3 bus1=39 bus2=40 linecode=arranjo4 length=38 units=m 

new line.linha40 phases=3 bus1=31 bus2=41 linecode=arranjo4 length=1 units=m

new line.linha41 phases=3 bus1=32 bus2=42 linecode=arranjo1 length=31 units=m 

new line.linha42 phases=3 bus1=33 bus2=43 linecode=arranjo4 length=38 units=m 

new line.linha43 phases=3 bus1=43 bus2=45 linecode=arranjo4 length=38 units=m 

new line.linha44 phases=3 bus1=43 bus2=44 linecode=arranjo4 length=38 units=m 

new line.linha45 phases=3 bus1=35 bus2=46 linecode=arranjo4 length=1 units=m

new line.linha46 phases=3 bus1=46 bus2=48 linecode=arranjo1 length=31 units=m 

new line.linha47 phases=3 bus1=46 bus2=47 linecode=arranjo4 length=38 units=m 

new line.linha48 phases=3 bus1=36 bus2=49 linecode=arranjo4 length=38 units=m 

new line.linha49 phases=3 bus1=37 bus2=50 linecode=arranjo1 length=31 units=m 

new line.linha50 phases=3 bus1=38 bus2=51 linecode=arranjo4 length=38 units=m 

new line.linha51 phases=3 bus1=39 bus2=40 linecode=arranjo4 length=1 units=m

new line.linha52 phases=3 bus1=34 bus2=52 linecode=arranjo1 length=31 units=m 

new line.linha53 phases=3 bus1=52 bus2=53 linecode=arranjo4 length=38 units=m 

new line.linha54 phases=3 bus1=53 bus2=54 linecode=arranjo4 length=1 units=m

new line.linha55 phases=3 bus1=54 bus2=55 linecode=arranjo1 length=31 units=m 

new line.linha56 phases=3 bus1=55 bus2=95 linecode=arranjo4 length=38 units=m 

new line.linha57 phases=3 bus1=95 bus2=96 linecode=arranjo4 length=38 units=m 

new line.linha58 phases=3 bus1=55 bus2=59 linecode=arranjo1 length=31 units=m 

new line.linha59 phases=3 bus1=59 bus2=62 linecode=arranjo4 length=38 units=m 

new line.linha60 phases=3 bus1=59 bus2=63 linecode=arranjo4 length=1 units=m

new line.linha61 phases=3 bus1=59 bus2=60 linecode=arranjo1 length=31 units=m 

new line.linha62 phases=3 bus1=60 bus2=61 linecode=arranjo4 length=38 units=m 

new line.linha63 phases=3 bus1=63 bus2=64 linecode=arranjo4 length=1 units=m

new line.linha64 phases=3 bus1=63 bus2=65 linecode=arranjo1 length=31 units=m 

new line.linha65 phases=3 bus1=54 bus2=58 linecode=arranjo4 length=38 units=m 

new line.linha66 phases=3 bus1=53 bus2=57 linecode=arranjo4 length=1 units=m

new line.linha67 phases=3 bus1=52 bus2=56 linecode=arranjo1 length=31 units=m 

new line.linha68 phases=3 bus1=30 bus2=66 linecode=arranjo4 length=38 units=m 

new line.linha69 phases=3 bus1=66 bus2=67 linecode=arranjo4 length=38 units=m 

new line.linha70 phases=3 bus1=67 bus2=68 linecode=arranjo1 length=31 units=m 

new line.linha71 phases=3 bus1=68 bus2=69 linecode=arranjo4 length=38 units=m 

new line.linha72 phases=3 bus1=69 bus2=70 linecode=arranjo4 length=1 units=m

new line.linha73 phases=3 bus1=69 bus2=71 linecode=arranjo1 length=31 units=m 

new line.linha74 phases=3 bus1=71 bus2=73 linecode=arranjo4 length=38 units=m 

new line.linha75 phases=3 bus1=71 bus2=72 linecode=arranjo4 length=1 units=m

new line.linha76 phases=3 bus1=68 bus2=74 linecode=arranjo1 length=31 units=m 

new line.linha77 phases=3 bus1=67 bus2=75 linecode=arranjo4 length=38 units=m 

new line.linha78 phases=3 bus1=66 bus2=76 linecode=arranjo4 length=38 units=m 

new line.linha79 phases=3 bus1=76 bus2=78 linecode=arranjo4 length=38 units=m 

new line.linha80 phases=3 bus1=76 bus2=77 linecode=arranjo1 length=31 units=m 

new line.linha81 phases=3 bus1=66 bus2=79 linecode=arranjo4 length=38 units=m 

new line.linha82 phases=3 bus1=79 bus2=80 linecode=arranjo4 length=38 units=m 

new line.linha83 phases=3 bus1=79 bus2=82 linecode=arranjo1 length=31 units=m 

new line.linha84 phases=3 bus1=79 bus2=81 linecode=arranjo4 length=38 units=m 

new line.linha85 phases=3 bus1=82 bus2=83 linecode=arranjo1 length=31 units=m 

new line.linha86 phases=3 bus1=83 bus2=84 linecode=arranjo4 length=38 units=m 

new line.linha87 phases=3 bus1=83 bus2=85 linecode=arranjo4 length=1 units=m

new line.linha88 phases=3 bus1=83 bus2=86 linecode=arranjo1 length=31 units=m 

new line.linha89 phases=3 bus1=82 bus2=87 linecode=arranjo4 length=38 units=m 

new line.linha90 phases=3 bus1=87 bus2=88 linecode=arranjo4 length=1 units=m

new line.linha91 phases=3 bus1=87 bus2=89 linecode=arranjo4 length=38 units=m 

new line.linha92 phases=3 bus1=89 bus2=90 linecode=arranjo4 length=1 units=m

new line.linha93 phases=3 bus1=89 bus2=91 linecode=arranjo1 length=31 units=m 

new line.linha94 phases=3 bus1=28 bus2=92 linecode=arranjo4 length=38 units=m 

new line.linha95 phases=3 bus1=92 bus2=93 linecode=arranjo4 length=1 units=m

new line.linha96 phases=3 bus1=92 bus2=97 linecode=arranjo1 length=31 units=m 


new line.linha1020 phases=3 bus1=102 bus2=1030 linecode=arranjo1 length=31 units=m

//Trafo 30 delta estrela aterrada saindo o neutro PARA 501
new transformer.Trafo102103 xhl=3.5 windings=2 %loadloss=1.1267 %noloadloss=0.28 %imag=0.5 
~ wdg=1 bus=1030 kv=13.8 kva=300 conn=delta 
~ wdg=2 bus=1031 kv=0.38 kva=300 conn=wye 

new line.linha12900 phases=3 bus1=102 bus2=12900 linecode=arranjo6 length=31 units=m 

//Trafo 30 delta estrela aterrada saindo o neutro PARA 
new transformer.Trafo12900 xhl=3.5 windings=2 %loadloss=1.1267 %noloadloss=0.28 %imag=0.5 
~ wdg=1 bus=12900 kv=13.8 kva=300 conn=delta 
~ wdg=2 bus=12901 kv=0.38 kva=300 conn=wye 


new line.linha12500 phases=3 bus1=102 bus2=12500 linecode=arranjo6 length=31 units=m 

//Trafo 30 delta estrela aterrada saindo o neutro PARA 
new transformer.Trafo12500 xhl=3.5 windings=2 %loadloss=1.1267 %noloadloss=0.28 %imag=0.5 
~ wdg=1 bus=12500 kv=13.8 kva=300 conn=delta 
~ wdg=2 bus=12501 kv=0.38 kva=300 conn=wye 


new line.linha14000 phases=3 bus1=102 bus2=14000 linecode=arranjo6 length=31 units=m 

//Trafo 30 delta estrela aterrada saindo o neutro PARA 
new transformer.Trafo14000 xhl=3.5 windings=2 %loadloss=1.1267 %noloadloss=0.28 %imag=0.5 
~ wdg=1 bus=14000 kv=13.8 kva=300 conn=delta 
~ wdg=2 bus=14001 kv=0.38 kva=300 conn=wye 


new line.linha16300 phases=3 bus1=102 bus2=16300 linecode=arranjo6 length=31 units=m 

//Trafo 30 delta estrela aterrada saindo o neutro PARA 
new transformer.Trafo16300 xhl=3.5 windings=2 %loadloss=1.1267 %noloadloss=0.28 %imag=0.5 
~ wdg=1 bus=16300 kv=13.8 kva=300 conn=delta 
~ wdg=2 bus=16301 kv=0.38 kva=300 conn=wye 


new line.linha17300 phases=3 bus1=102 bus2=17300 linecode=arranjo6 length=31 units=m 

//Trafo 30 delta estrela aterrada saindo o neutro PARA 
new transformer.Trafo17300 xhl=3.5 windings=2 %loadloss=1.1267 %noloadloss=0.28 %imag=0.5 
~ wdg=1 bus=17300 kv=13.8 kva=300 conn=delta 
~ wdg=2 bus=17301 kv=0.38 kva=300 conn=wye


new line.linha12903 phases=3 bus1=12901 bus2=129 linecode=arranjo1 length=31 units=m 

new line.linha12503 phases=3 bus1=12501 bus2=125 linecode=arranjo1 length=31 units=m 

new line.linha16303 phases=3 bus1=16301 bus2=163 linecode=arranjo1 length=31 units=m 

new line.linha14003 phases=3 bus1=14001 bus2=140 linecode=arranjo1 length=31 units=m 

new line.linha17303 phases=3 bus1=17301 bus2=173 linecode=arranjo1 length=31 units=m 
 

new line.linha102 phases=3 bus1=1031 bus2=103 linecode=arranjo1 length=31 units=m 

new line.linha103 phases=3 bus1=103 bus2=104 linecode=arranjo4 length=38 units=m 

new line.linha104 phases=3 bus1=104 bus2=105 linecode=arranjo4 length=1 units=m

new line.linha105 phases=3 bus1=103 bus2=106 linecode=arranjo1 length=31 units=m 

new line.linha106 phases=3 bus1=106 bus2=107 linecode=arranjo4 length=38 units=m 

new line.linha107 phases=3 bus1=106 bus2=110 linecode=arranjo4 length=1 units=m

new line.linha108 phases=3 bus1=107 bus2=108 linecode=arranjo1 length=31 units=m 

new line.linha109 phases=3 bus1=108 bus2=109 linecode=arranjo4 length=38 units=m 

new line.linha110 phases=3 bus1=103 bus2=111 linecode=arranjo4 length=1 units=m

new line.linha111 phases=3 bus1=111 bus2=112 linecode=arranjo1 length=31 units=m 

new line.linha112 phases=3 bus1=111 bus2=117 linecode=arranjo4 length=38 units=m 

new line.linha113 phases=3 bus1=111 bus2=113 linecode=arranjo4 length=38 units=m 

new line.linha114 phases=3 bus1=113 bus2=114 linecode=arranjo1 length=31 units=m 

new line.linha115 phases=3 bus1=113 bus2=115 linecode=arranjo4 length=38 units=m 

new line.linha116 phases=3 bus1=115 bus2=116 linecode=arranjo4 length=1 units=m

new line.linha117 phases=3 bus1=117 bus2=118 linecode=arranjo1 length=31 units=m 

new line.linha118 phases=3 bus1=118 bus2=119 linecode=arranjo4 length=38 units=m 

new line.linha119 phases=3 bus1=118 bus2=120 linecode=arranjo4 length=1 units=m

new line.linha120 phases=3 bus1=117 bus2=121 linecode=arranjo1 length=31 units=m 

//new line.linha121 phases=3 bus1=117 bus2=129 linecode=arranjo4 length=38 units=m 

new line.linha122 phases=3 bus1=107 bus2=124 linecode=arranjo4 length=38 units=m 

new line.linha123 phases=3 bus1=124 bus2=122 linecode=arranjo1 length=31 units=m 

//new line.linha124 phases=3 bus1=124 bus2=125 linecode=arranjo4 length=38 units=m 

new line.linha125 phases=3 bus1=122 bus2=123 linecode=arranjo4 length=1 units=m

new line.linha126 phases=3 bus1=125 bus2=126 linecode=arranjo1 length=31 units=m 

new line.linha127 phases=3 bus1=125 bus2=126 linecode=arranjo4 length=38 units=m 

new line.linha128 phases=3 bus1=126 bus2=127 linecode=arranjo4 length=1 units=m

new line.linha129 phases=3 bus1=125 bus2=128 linecode=arranjo1 length=31 units=m 

new line.linha130 phases=3 bus1=125 bus2=143 linecode=arranjo4 length=38 units=m 

new line.linha131 phases=3 bus1=143 bus2=144 linecode=arranjo4 length=1 units=m

new line.linha132 phases=3 bus1=144 bus2=145 linecode=arranjo4 length=1 units=m

new line.linha133 phases=3 bus1=145 bus2=146 linecode=arranjo4 length=38 units=m 

new line.linha134 phases=3 bus1=146 bus2=147 linecode=arranjo4 length=38 units=m 

new line.linha135 phases=3 bus1=144 bus2=148 linecode=arranjo1 length=31 units=m 

new line.linha136 phases=3 bus1=148 bus2=149 linecode=arranjo4 length=38 units=m 

new line.linha137 phases=3 bus1=149 bus2=150 linecode=arranjo4 length=1 units=m

new line.linha138 phases=3 bus1=150 bus2=151 linecode=arranjo1 length=31 units=m 

new line.linha139 phases=3 bus1=150 bus2=170 linecode=arranjo4 length=38 units=m 

new line.linha140 phases=3 bus1=170 bus2=171 linecode=arranjo4 length=1 units=m

new line.linha141 phases=3 bus1=170 bus2=172 linecode=arranjo1 length=31 units=m 

new line.linha142 phases=3 bus1=143 bus2=152 linecode=arranjo4 length=38 units=m 

new line.linha143 phases=3 bus1=152 bus2=153 linecode=arranjo4 length=38 units=m 

//new line.linha144 phases=3 bus1=152 bus2=173 linecode=arranjo4 length=38 units=m 

new line.linha145 phases=3 bus1=173 bus2=174 linecode=arranjo4 length=1 units=m

new line.linha146 phases=3 bus1=174 bus2=175 linecode=arranjo1 length=31 units=m 

new line.linha147 phases=3 bus1=175 bus2=176 linecode=arranjo4 length=38 units=m 

new line.linha148 phases=3 bus1=176 bus2=177 linecode=arranjo4 length=38 units=m 

new line.linha149 phases=3 bus1=129 bus2=130 linecode=arranjo1 length=31 units=m 

new line.linha150 phases=3 bus1=130 bus2=131 linecode=arranjo4 length=38 units=m 

new line.linha151 phases=3 bus1=130 bus2=132 linecode=arranjo4 length=1 units=m

new line.linha152 phases=3 bus1=132 bus2=133 linecode=arranjo1 length=31 units=m 

new line.linha153 phases=3 bus1=130 bus2=134 linecode=arranjo4 length=38 units=m 

new line.linha154 phases=3 bus1=134 bus2=135 linecode=arranjo4 length=1 units=m

new line.linha155 phases=3 bus1=135 bus2=136 linecode=arranjo1 length=31 units=m 

//new line.linha156 phases=3 bus1=134 bus2=140 linecode=arranjo4 length=38 units=m 

new line.linha157 phases=3 bus1=140 bus2=141 linecode=arranjo4 length=38 units=m 

new line.linha158 phases=3 bus1=141 bus2=142 linecode=arranjo1 length=31 units=m 

new line.linha159 phases=3 bus1=140 bus2=154 linecode=arranjo4 length=38 units=m 

new line.linha160 phases=3 bus1=154 bus2=155 linecode=arranjo4 length=1 units=m

new line.linha161 phases=3 bus1=155 bus2=156 linecode=arranjo1 length=31 units=m 

new line.linha162 phases=3 bus1=154 bus2=159 linecode=arranjo4 length=38 units=m 

new line.linha163 phases=3 bus1=155 bus2=157 linecode=arranjo4 length=1 units=m

new line.linha164 phases=3 bus1=157 bus2=158 linecode=arranjo1 length=31 units=m 

new line.linha165 phases=3 bus1=157 bus2=166 linecode=arranjo4 length=38 units=m 

new line.linha166 phases=3 bus1=166 bus2=167 linecode=arranjo4 length=1 units=m

new line.linha167 phases=3 bus1=167 bus2=161 linecode=arranjo1 length=31 units=m 

new line.linha168 phases=3 bus1=167 bus2=168 linecode=arranjo4 length=38 units=m 

new line.linha169 phases=3 bus1=129 bus2=137 linecode=arranjo4 length=38 units=m 

new line.linha170 phases=3 bus1=137 bus2=178 linecode=arranjo1 length=31 units=m 

new line.linha171 phases=3 bus1=137 bus2=138 linecode=arranjo4 length=38 units=m 

new line.linha172 phases=3 bus1=138 bus2=139 linecode=arranjo4 length=1 units=m

//new line.linha173 phases=3 bus1=138 bus2=163 linecode=arranjo1 length=31 units=m 

new line.linha174 phases=3 bus1=163 bus2=162 linecode=arranjo4 length=38 units=m 

new line.linha175 phases=3 bus1=163 bus2=164 linecode=arranjo4 length=1 units=m

new line.linha176 phases=3 bus1=163 bus2=165 linecode=arranjo1 length=31 units=m 

new line.linha177 phases=3 bus1=165 bus2=169 linecode=arranjo4 length=38 units=m 

new line.linha178 phases=3 bus1=165 bus2=160 linecode=arranjo4 length=38 units=m 


new line.linha2020 phases=3 bus1=202 bus2=2030 linecode=arranjo1 length=31 units=m

//Trafo 30 delta estrela aterrada saindo o neutro PARA 501
new transformer.Trafo202203 xhl=3.5 windings=2 %loadloss=1.1267 %noloadloss=0.28 %imag=0.5 
~ wdg=1 bus=2030 kv=13.8 kva=300 conn=delta 
~ wdg=2 bus=2031 kv=0.38 kva=300 conn=wye 



new line.linha27200 phases=3 bus1=202 bus2=27200 linecode=arranjo6 length=31 units=m 

//Trafo 30 delta estrela aterrada saindo o neutro PARA 
new transformer.Trafo27200 xhl=3.5 windings=2 %loadloss=1.1267 %noloadloss=0.28 %imag=0.5 
~ wdg=1 bus=27200 kv=13.8 kva=300 conn=delta 
~ wdg=2 bus=27201 kv=0.38 kva=300 conn=wye 


new line.linha22900 phases=3 bus1=202 bus2=22900 linecode=arranjo6 length=31 units=m 

//Trafo 30 delta estrela aterrada saindo o neutro PARA 
new transformer.Trafo22900 xhl=3.5 windings=2 %loadloss=1.1267 %noloadloss=0.28 %imag=0.5 
~ wdg=1 bus=22900 kv=13.8 kva=300 conn=delta 
~ wdg=2 bus=22901 kv=0.38 kva=300 conn=wye 


new line.linha32000 phases=3 bus1=202 bus2=32000 linecode=arranjo6 length=31 units=m 

//Trafo 30 delta estrela aterrada saindo o neutro PARA 
new transformer.Trafo32000 xhl=3.5 windings=2 %loadloss=1.1267 %noloadloss=0.28 %imag=0.5 
~ wdg=1 bus=32000 kv=13.8 kva=300 conn=delta 
~ wdg=2 bus=32001 kv=0.38 kva=300 conn=wye 


new line.linha20900 phases=3 bus1=202 bus2=20900 linecode=arranjo6 length=31 units=m 

//Trafo 30 delta estrela aterrada saindo o neutro PARA 
new transformer.Trafo20900 xhl=3.5 windings=2 %loadloss=1.1267 %noloadloss=0.28 %imag=0.5 
~ wdg=1 bus=20900 kv=13.8 kva=300 conn=delta 
~ wdg=2 bus=20901 kv=0.38 kva=300 conn=wye 


new line.linha26100 phases=3 bus1=202 bus2=26100 linecode=arranjo6 length=31 units=m 

//Trafo 30 delta estrela aterrada saindo o neutro PARA 
new transformer.Trafo26100 xhl=3.5 windings=2 %loadloss=1.1267 %noloadloss=0.28 %imag=0.5 
~ wdg=1 bus=26100 kv=13.8 kva=300 conn=delta 
~ wdg=2 bus=26101 kv=0.38 kva=300 conn=wye


new line.linha23400 phases=3 bus1=202 bus2=23400 linecode=arranjo6 length=31 units=m 

//Trafo 30 delta estrela aterrada saindo o neutro PARA 
new transformer.Trafo23400 xhl=3.5 windings=2 %loadloss=1.1267 %noloadloss=0.28 %imag=0.5 
~ wdg=1 bus=23400 kv=13.8 kva=300 conn=delta 
~ wdg=2 bus=23401 kv=0.38 kva=300 conn=wye


new line.linha22400 phases=3 bus1=202 bus2=22400 linecode=arranjo6 length=31 units=m 

//Trafo 30 delta estrela aterrada saindo o neutro PARA 
new transformer.Trafo22400 xhl=3.5 windings=2 %loadloss=1.1267 %noloadloss=0.28 %imag=0.5 
~ wdg=1 bus=22400 kv=13.8 kva=300 conn=delta 
~ wdg=2 bus=22401 kv=0.38 kva=300 conn=wye


new line.linha27900 phases=3 bus1=202 bus2=27900 linecode=arranjo6 length=31 units=m 

//Trafo 30 delta estrela aterrada saindo o neutro PARA 
new transformer.Trafo27900 xhl=3.5 windings=2 %loadloss=1.1267 %noloadloss=0.28 %imag=0.5 
~ wdg=1 bus=27900 kv=13.8 kva=300 conn=delta 
~ wdg=2 bus=27901 kv=0.38 kva=300 conn=wye


new line.linha34100 phases=3 bus1=202 bus2=34100 linecode=arranjo6 length=31 units=m 

//Trafo 30 delta estrela aterrada saindo o neutro PARA 
new transformer.Trafo34100 xhl=3.5 windings=2 %loadloss=1.1267 %noloadloss=0.28 %imag=0.5 
~ wdg=1 bus=34100 kv=13.8 kva=300 conn=delta 
~ wdg=2 bus=34101 kv=0.38 kva=300 conn=wye


new line.linha25600 phases=3 bus1=202 bus2=25600 linecode=arranjo6 length=31 units=m 

//Trafo 30 delta estrela aterrada saindo o neutro PARA 
new transformer.Trafo25600 xhl=3.5 windings=2 %loadloss=1.1267 %noloadloss=0.28 %imag=0.5 
~ wdg=1 bus=25600 kv=13.8 kva=300 conn=delta 
~ wdg=2 bus=25601 kv=0.38 kva=300 conn=wye


new line.linha27203 phases=3 bus1=27201 bus2=272 linecode=arranjo1 length=31 units=m 

new line.linha22903 phases=3 bus1=22901 bus2=229 linecode=arranjo1 length=31 units=m 

new line.linha32003 phases=3 bus1=32001 bus2=320 linecode=arranjo1 length=31 units=m 

new line.linha20903 phases=3 bus1=20901 bus2=209 linecode=arranjo1 length=31 units=m

new line.linha26103 phases=3 bus1=26101 bus2=261 linecode=arranjo1 length=31 units=m

new line.linha23403 phases=3 bus1=23401 bus2=234 linecode=arranjo1 length=31 units=m

new line.linha22403 phases=3 bus1=23401 bus2=224 linecode=arranjo1 length=31 units=m

new line.linha27903 phases=3 bus1=27901 bus2=279 linecode=arranjo1 length=31 units=m

new line.linha34103 phases=3 bus1=34101 bus2=341 linecode=arranjo1 length=31 units=m

new line.linha25603 phases=3 bus1=25601 bus2=256 linecode=arranjo1 length=31 units=m


new line.linha202 phases=3 bus1=2031 bus2=203 linecode=arranjo1 length=31 units=m 

new line.linha203 phases=3 bus1=203 bus2=204 linecode=arranjo4 length=38 units=m 

new line.linha204 phases=3 bus1=203 bus2=205 linecode=arranjo4 length=1 units=m

new line.linha205 phases=3 bus1=205 bus2=206 linecode=arranjo1 length=31 units=m 

new line.linha206 phases=3 bus1=206 bus2=207 linecode=arranjo4 length=38 units=m 

new line.linha207 phases=3 bus1=207 bus2=208 linecode=arranjo4 length=1 units=m
